210
C60-Ih                                                                          
C 2.1665 0.5906 2.5874
C 3.0378 0.1766 1.5918
C 1.2786 -0.3098 3.1679
C 3.0118 -1.1434 1.1654
C 3.1034 -1.4335 -0.193
C 3.1503 1.2106 0.6682
C 3.2428 0.9149 -0.6859
C 3.2192 -0.4023 -1.1207
C -0.4393 1.3527 3.1271
C 0.4363 2.2618 2.5542
C -0.0296 0.0633 3.4379
C 1.7442 1.879 2.283
C 2.3519 2.2676 1.099
C -0.2633 3.0268 1.6326
C 0.3374 3.4054 0.4373
C 1.6516 3.0278 0.1707
C -2.0903 -0.8225 2.5955
C -2.5111 0.4664 2.2854
C -0.8449 -1.0252 3.1738
C -1.6874 1.5533 2.5512
C -1.5843 2.5858 1.6319
C -3.2314 0.4061 1.1007
C -3.1227 1.441 0.1746
C -2.2947 2.5291 0.4399
C -0.4908 -2.9133 1.7365
C -1.743 -2.7124 1.1637
C -0.0393 -2.0684 2.7453
C -2.5486 -1.665 1.5942
C -3.2602 -0.9141 0.6701
C -1.6543 -3.0061 -0.1897
C -2.3542 -2.2439 -1.117
C -3.1643 -1.1949 -0.6878
C 2.1364 -2.0553 1.7358
C 1.6895 -2.9009 0.7293
C 1.2785 -1.6366 2.7435
C 0.3678 -3.3327 0.7302
C -0.344 -3.3904 -0.4594
C 2.2889 -2.525 -0.464
C 1.579 -2.5718 -1.658
C 0.256 -3.0054 -1.6531
C -2.1828 -0.5783 -2.5979
C -1.748 -1.8694 -2.3083
C -0.4385 -2.2469 -2.5845
C -1.2815 0.3189 -3.1671
C -2.1526 2.0545 -1.7378
C -3.0485 1.1535 -1.1811
C -3.0656 -0.1629 -1.6107
C -1.2661 1.6407 -2.7271
C 0.5039 2.9361 -1.7418
C -0.3788 3.3561 -0.7513
C -1.6943 2.9186 -0.7491
C 0.0521 2.073 -2.7355
C 2.0976 0.834 -2.6051
C 2.5517 1.6923 -1.6107
C 1.7589 2.7452 -1.1824
C 0.842 1.0206 -3.1786
C 0.4461 -1.3495 -3.1661
C 1.6983 -1.5485 -2.5908
C 2.5184 -0.4623 -2.3171
C 0.0218 -0.0645 -3.4585
X 2.60215 0.38360000000000005 2.0896
X 1.72255 0.14040000000000002 2.87765
X 1.434452389355667 1.1001134083353235 1.8741085677399845
X 2.381227124482053 1.6593857021820375 2.927799279790686
X 1.95535 1.2348 2.4352
X 2.3393207718166105 -0.5152311186658531 1.0138227835860003
X 3.7044608328759265 -0.7469643354053417 1.6479555333716078
X 3.0248 -0.48339999999999994 1.3786
X 3.09405 0.6936 1.1300000000000001
X 0.6245 -0.12325 3.3029
X 1.5360440556713206 -1.3420802220007153 3.5900986464117204
X 1.0210332528368522 -0.9053904915604152 2.224998662274334
X 1.27855 -0.9732000000000001 2.9557
X 3.0576 -1.28845 0.4862
X 2.5741 -1.59935 1.4506000000000001
X 3.892750217049072 -1.0099558572352316 -0.9041715431371642
X 2.456054862401977 -0.5924876839571545 -0.6194632773009889
X 3.1612999999999998 -0.9179 -0.6568500000000002
X 2.69615 -1.97925 -0.3285
X 2.4825747767248108 0.7946953525628231 -0.15920410958387943
X 3.9313125680303895 1.2643525626359582 -0.16280014482711147
X 3.1965500000000002 1.0627499999999999 -0.008850000000000025
X 2.7511 1.7390999999999999 0.8835999999999999
X 3.231 0.2563000000000001 -0.9033
X 2.8972499999999997 1.3036 -1.1482999999999999
X 2.8688000000000002 -0.4323 -1.7189
X -0.0015000000000000013 1.80725 2.84065
X -0.24951554671755197 0.7229466768420897 4.059433202969596
X -0.1275258040305721 0.4039575400352139 2.575251122603953
X -0.23445 0.7080000000000001 3.2824999999999998
X -1.06335 1.453 2.83915
X 1.09025 2.0704000000000002 2.4185999999999996
X -0.003436710417695837 3.311289677002739 2.4819154907081806
X 0.02000146779313656 2.148369443362881 1.4988085807572367
X 0.08650000000000002 2.6443000000000003 2.0934
X -0.43724999999999997 -0.48095 3.30585
X 2.04805 2.0732999999999997 1.6909999999999998
X 2.3752118698987745 3.3281614531418127 0.6766337580737968
X 1.4708430719302399 2.1381506319953907 0.3843610477235385
X 2.00175 2.6477 0.63485
X 0.03704999999999997 3.2161 1.03495
X -0.9238 2.8063000000000002 1.63225
X 0.9944999999999999 3.2166 0.30400000000000005
X -0.0681533140371704 4.134257004494177 -0.34170212255494137
X -0.133989808628024 2.616178158941464 -0.23906592491762177
X -0.02070000000000005 3.3807500000000004 -0.15699999999999992
X 1.70525 2.8865 -0.5058499999999999
X -2.3007 -0.17804999999999999 2.4404500000000002
X -1.4676 -0.92385 2.8846499999999997
X -1.815111896227648 -1.0933833263682897 1.5231388404175994
X -2.9261222599057333 -1.5822391404490215 2.4429801197910965
X -2.31945 -1.24375 2.09485
X -2.09925 1.00985 2.4183000000000003
X -3.6020552763870866 0.4862004623566558 1.9527555676522508
X -2.3017947864868686 0.3727920979775111 1.167966923689169
X -2.87125 0.43625 1.69305
X -0.28703841491791304 -1.3322704982873161 2.2290257096922863
X -0.41753534267456194 -1.99393389108648 3.594530788729232
X -0.4421 -1.5468 2.95955
X -1.9614442838679573 2.657275344590056 2.4818726893330134
X -1.2872479480904597 1.7122370754190066 1.496076571960612
X -1.63585 2.06955 2.09155
X -1.9395 2.5574500000000002 1.0359
X -3.17705 0.9235500000000001 0.63765
X -3.2458 -0.254 0.8854000000000001
X -2.0049559859581336 1.6542308288870826 0.2968879441667936
X -3.2246547902318987 2.5626487054458 0.37778171896941964
X -2.7087000000000003 1.9850500000000002 0.30725
X -3.0856000000000003 1.29725 -0.50325
X -1.9945 2.72385 -0.15459999999999996
X -1.0187173351307048 -2.129110681178255 1.0930720999262045
X -1.498214207332761 -3.4511643652353294 1.6776136471404994
X -1.1169 -2.81285 1.4501
X -0.26505 -2.49085 2.2409
X -0.0615 -3.123 1.23335
X -2.1458 -2.1887 1.3789500000000001
X -1.6986500000000002 -2.8592500000000003 0.487
X 0.6195999999999999 -1.8525 2.7443999999999997
X -2.9044 -1.28955 1.13215
X -3.925620850149821 -1.3215558539743621 -0.16420763361970647
X -2.477282375841048 -0.8506805812890784 -0.15929277750645454
X -3.21225 -1.0545 -0.008850000000000025
X -1.6288781647402488 -1.945516772246652 -0.6123458679041088
X -2.537065365158534 -3.133025221625541 -0.9029516249879342
X -2.00425 -2.625 -0.6533499999999999
X -0.9991500000000001 -3.19825 -0.32455
X -2.7592499999999998 -1.7194 -0.9024
X -2.0511 -2.05665 -1.71265
X -3.11495 -0.6789000000000001 -1.1492499999999999
X 2.3329575593701586 -3.1177879132672754 1.368613781111046
X 1.3926714201139456 -2.0281394864826496 0.8706576618308892
X 1.91295 -2.4781 1.2325499999999998
X 1.7074500000000001 -1.84595 2.23965
X 1.0286499999999998 -3.1168 0.7297499999999999
X 1.9891999999999999 -2.71295 0.13265
X -0.09994868956070373 -4.126742924452791 0.05832402284587053
X -0.03557604731227766 -2.6092722726778232 -0.05379644063752338
X 0.011900000000000022 -3.3615500000000003 0.13540000000000002
X -0.043999999999999984 -3.1979 -1.05625
X 1.4114570950306298 -1.9826789231153974 -0.9546751532077884
X 2.296594597036972 -3.1246590411207436 -1.4361780369193895
X 1.9339499999999998 -2.5484 -1.061
X 0.9175 -2.7885999999999997 -1.6555499999999999
X 1.63865 -2.06015 -2.1244
X -0.1475185394515222 -3.123570761648021 -2.71325664502887
X -0.19043692444479438 -1.958948144953338 -1.7328260318221438
X -0.09124999999999994 -2.62615 -2.1188
X -1.4559241283372302 -1.0941046219215418 -1.8800373816533238
X -2.376270026719551 -1.6463966807605874 -2.9604858642170626
X -1.9653999999999998 -1.22385 -2.4531
X -1.7321499999999999 -0.12969999999999998 -2.8825000000000003
X -2.6242 -0.37060000000000004 -2.1043000000000003
X -1.0932499999999998 -2.05815 -2.4463999999999997
X 0.00379999999999997 -1.7982 -2.8753
X -1.01100090438094 0.9011620294874493 -2.2193518833761647
X -1.5331031374044493 1.3585001502575058 -3.5749635962063895
X -1.2738 0.9798 -2.9471
X -0.62985 0.1272 -3.3128
X -2.60055 1.604 -1.45945
X -1.7093500000000001 1.8476 -2.23245
X -1.4220360403244898 2.0334037466111754 -0.8591001709032188
X -2.3214433954165696 3.134690164748525 -1.4046885223483314
X -1.9234499999999999 2.4865500000000003 -1.24345
X -2.3731448370305213 0.23826257611768997 -1.1317693754309839
X -3.744757206672438 0.4596467612755618 -1.7555486347907263
X -3.0570500000000003 0.4953 -1.3959000000000001
X -0.607 1.8568500000000001 -2.7313
X 0.06255 3.1461 -1.24655
X 0.28226422446745025 2.9677154618305197 -2.863205835760292
X 0.1715769787566812 1.8462246056833094 -1.8387847272237288
X 0.278 2.50455 -2.23865
X 1.1314 2.84065 -1.4621
X -1.03655 3.13735 -0.7502
X 0.44705 1.5468 -2.9570499999999997
X 2.32465 1.26315 -2.1079
X 1.4697999999999998 0.9272999999999999 -2.89185
X 1.818322366953176 -0.016437904705180258 -1.8917784651144425
X 2.8931547732068172 0.09401476594710245 -2.965075963673395
X 2.308 0.18585000000000002 -2.4611
X 1.5790215166965185 1.8417538730309722 -1.0366984720065067
X 2.5548541865952252 2.830449724350616 -1.6609285003949235
X 2.1553 2.21875 -1.39655
X 0.2739822873305717 0.21380269999820203 -2.6048303862260473
X 0.4056717292831471 0.4986776870141686 -4.095110946070734
X 0.43189999999999995 0.47805 -3.31855
X 1.4438693570101466 -1.8376317320444018 -3.4401927229399316
X 0.9841898196113616 -1.105447469479061 -2.186385344213596
X 1.0722 -1.4489999999999998 -2.87845
X 0.23395 -0.707 -3.3123
X 2.10835 -1.0054 -2.45395
