13
C2H2_in 
C 0.0 0.0 0.6011
C 0.0 0.0 -0.6011
H 0.0 0.0 1.6632
H 0.0 0.0 -1.6632
X 0.0 0.0 0.6011
X 0.699229588650786 0.1398459177301572 0.0
X -0.47072491169525765 0.5356276279842455 0.0
X -0.22850467695552804 -0.6754735457144025 0.0
X 0.0 0.0 1.445243170570936
X 0.0 0.0 -0.6011
X 0.0 0.0 -1.445243170570936
X 0.0 0.0 1.445243170570936
X 0.0 0.0 -1.445243170570936
