15
N2H4_in 
N 0.0 0.7276 -0.0657
N 0.0 -0.7276 -0.0657
H -0.2469 1.1379 0.8404
H 0.2469 -1.1379 0.8404
H 0.9134 1.0545 -0.3807
H -0.9134 -1.0545 -0.3807
X 0.0 0.0 -0.0657
X -0.1992662543784051 1.0587419367009299 0.6655885908962044
X 0.7371802217465986 0.9914320719169729 -0.31992790655811093
X -0.443560310380423 0.8369625179315856 -0.4590810944724202
X 0.0 0.7276 -0.0657
X 0.1992662543784051 -1.0587419367009299 0.6655885908962044
X -0.7371802217465986 -0.9914320719169729 -0.31992790655811093
X 0.443560310380423 -0.8369625179315856 -0.4590810944724202
X 0.0 -0.7276 -0.0657
