75
1,3,7-Trimethylpurine-2,6-dione
N 1.5808 0.7027 -0.2279
C 1.7062 -0.7374 -0.2126
N 0.534 -1.5671 -0.3503
C 0.3231 1.36 0.0274
C -0.8123 0.4553 0.0817
C -0.6967 -0.9322 -0.0662
N -2.1886 0.699 0.2783
C -2.8512 -0.5205 0.2532
N -1.9537 -1.5188 0.0426
C 0.6568 -3.0274 -0.1675
O 2.8136 -1.2558 -0.1693
O 0.2849 2.5744 0.1591
C -2.8096 2.0031 0.5032
C 2.8301 1.5004 -0.1968
H -3.9271 -0.6787 0.3762
H 1.4823 -3.4046 -0.7865
H -0.2708 -3.5204 -0.4868
H 0.8567 -3.299 0.8788
H -2.4123 2.7478 -0.2017
H -2.6042 2.3621 1.5221
H -3.8973 1.9344 0.3695
H 3.5959 1.0333 -0.8314
H 3.2249 1.5791 0.8255
H 2.6431 2.513 -0.5793
X 1.6410848835803455 0.010385320222840333 -0.22054466731435973
X 0.9761724236124341 1.0186908610634866 -0.10516689969647328
X 2.18138935452094 1.08618685511995 -0.21294896427951554
X 1.5245533382862804 0.695536963593723 -0.37293946870965144
X 1.5808 0.7027 -0.2279
X 1.0975242466736939 -1.1682294425309983 -0.2841020058292376
X 2.255747371260619 -1.0150709090709826 0.18353123943114175
X 2.3435603715322824 -1.0153485363541934 -0.5623224393020714
X 1.7062 -0.7374 -0.2126
X -0.05764757753055372 -1.2618777305808495 -0.21372156758232688
X 0.5930349577644853 -2.2691256418849983 -0.26242060033104314
X 0.5030883730923746 -1.5691671850031537 -0.6409558262573924
X 0.534 -1.5671 -0.3503
X -0.24460000000000004 0.9076500000000001 0.05455
X 0.25022688608961074 2.054336758048772 -0.2722757543469627
X 0.3550304773069137 1.9672532391046498 0.4682313889196782
X 0.3231 1.36 0.0274
X -0.6780840037496252 -0.29782692273774936 0.6163028571240097
X -0.8309159962503747 -0.17907307726225077 -0.6008028571240096
X -1.526956576781262 0.5818434917980044 0.18378637869301467
X -0.8123 0.4553 0.0817
X -1.3494089421013196 -1.2367975063139491 -0.009704587986775197
X -0.6967 -0.9322 -0.0662
X -2.507138786765048 0.11273671829161436 0.2662334084699627
X -2.4871399737112814 1.3259339447936904 0.3864185830719278
X -2.233164662742409 0.7754858451166906 0.27676162976509483
X -2.1886 0.699 0.2783
X -2.321753866653867 -1.0835633453446345 0.6410338197892655
X -2.4485756869882422 -0.9941897762142317 -0.3533458376198748
X -3.7063112298439598 -0.6462352881878561 0.35095878917260626
X -2.8512 -0.5205 0.2532
X -1.8798152054360264 -2.3356856409922315 -0.04221256725589134
X -1.9537 -1.5188 0.0426
X 1.3128965891218412 -3.327193620129326 -0.6594730934784006
X -0.08044433200414286 -3.4192299435942672 -0.42127545839685515
X 0.8156779020780812 -3.243264123083576 0.6640855374902271
X 0.6568 -3.0274 -0.1675
X 2.67302593324005 -1.943755620606252 -0.19371167672037937
X 3.2495729145963987 -0.7065114525441301 -0.1262925180741019
X 2.8136 -1.2558 -0.1693
X -0.3709620964077354 2.702028844325924 0.2654429851337392
X 0.9310150468898644 2.762199890918546 0.08825094179196331
X 0.2849 2.5744 0.1591
X -2.4938311631034433 2.594977807291381 -0.057045288518456555
X -2.646350769950786 2.2884284984793952 1.3130083763249474
X -3.6740897153092993 1.948498139706032 0.3969369909562808
X -2.8096 2.0031 0.5032
X 3.4387478109624543 1.129155037215249 -0.701171769178341
X 3.143881869636951 1.562949729332391 0.6157106517980113
X 2.681474848981485 2.3052012188307405 -0.5008059907196902
X 2.8301 1.5004 -0.1968
