14
C2H4_in 
C 0.0 0.0 0.6695037189
C 0.0 0.0 -0.6695037189
H 0.0 0.928905109 1.2321067277
H 0.0 -0.928905109 1.2321067277
H 0.0 0.928905109 -1.2321067277
H 0.0 -0.928905109 -1.2321067277
X 0.6492802774839284 0.0 0.0
X -0.6492802774839284 0.0 0.0
X 0.0 0.7382816155454296 1.1166532223565295
X 0.0 -0.7382816155454296 1.1166532223565295
X 0.0 0.0 0.6695037189
X 0.0 0.7382816155454296 -1.1166532223565295
X 0.0 -0.7382816155454296 -1.1166532223565295
X 0.0 0.0 -0.6695037189
