13  
(with calculated FODs)
C 0.0552 0.5903 0.0
N 0.0552 -0.6848 0.0
H -0.8283 1.2352 0.0
H 1.0106 1.1102 0.0
H -0.8992 -1.0933 0.0
X 0.0552 0.5903 0.0
X 0.0552 -0.0718075354601374 -0.07614887160778926
X 0.0552 -0.0718075354601374 0.07614887160778926
X -0.6469942295446963 1.102858074287917 0.0
X 0.8145394079309596 1.0035097113076261 0.0
X 0.0552 -0.6848 0.0
X -0.7150702032351146 -1.0144892058063122 0.0
X 0.6656795511616566 -1.2391185027626692 0.0
