15  
(with calculated FODs)
C 0.0552 0.5903 0.0
N 0.0552 -0.6848 0.0
H -0.8283 1.2352 0.0
H 1.0106 1.1102 0.0
H -0.8992 -1.0933 0.0
X 0.0552 0.5903 0.0
X 0.0552 -0.0718075354601374 -0.43018764400000004
X 0.0552 -0.0718075354601374 0.43018764400000004
X -0.2009248375497876 0.7772551870241744 0.0
X 0.3321685000510096 0.7410179434545949 0.0
X 0.0552 -0.6848 0.0
X -0.20658417521334085 -0.7968482350949808 0.0
X -0.20092483754978763 0.7772551870241744 0.0
X 0.33216850005100973 0.7410179434545949 0.0
X -0.20658417521334083 -0.7968482350949808 0.0
