20  
(with calculated FODs)
C 0.0 0.0 -1.246
C 0.0 0.0 0.221
C 0.0 0.0 1.425
H 0.0 0.0 2.487
H 0.0 1.025 -1.629
H 0.888 -0.513 -1.629
H -0.888 -0.513 -1.629
X 0.0 0.0 -1.246
X 0.0 0.0 -0.5125
X 0.0 0.5125 -1.4375
X 0.444 -0.2565 -1.4375
X -0.444 -0.2565 -1.4375
X 0.0 0.0 0.221
X 0.0 0.0 -0.5125000000000001
X 0.0 0.0 1.425
X 0.0 0.0 1.956
X 0.0 0.0 1.956
X 0.0 0.5125 -1.4375
X 0.444 -0.2565 -1.4375
X -0.444 -0.2565 -1.4375
