12  
(with calculated FODs)
S 0.0 0.0 0.3686
O 0.0 1.2481 -0.3686
O 0.0 -1.2481 -0.3686
X 0.0 0.0 0.3686
X 0.0 0.0 0.5686
X 0.18856180831641267 0.0 0.30193333333333333
X -0.09428090415820634 0.16329931618554522 0.30193333333333333
X -0.09428090415820634 -0.16329931618554522 0.30193333333333333
X 0.0 -0.8320666666666666 -0.12286666666666662
X 0.0 0.0 1.25324
X 0.0 1.2481 -0.3686
X 0.0 -1.2481 -0.3686
