30  
(with calculated FODs)
C 0.0 0.9731 0.0
C 0.9845 -0.1708 0.0
C 0.5911 -1.4374 0.0
O -1.336 0.4101 0.0
H 0.181 1.5999 0.887
H 0.181 1.5999 -0.887
H 2.0349 0.1089 0.0
H 1.2981 -2.2583 0.0
H -0.4668 -1.6694 0.0
H -1.9945 1.1485 0.0
X 0.0 0.9731 0.0
X 0.49225 0.40115 0.0
X -0.6200397578240402 0.7118107906774441 0.0
X 0.12852847131124895 1.4181919658447009 0.6298605196302642
X 0.12852847131124895 1.4181919658447009 -0.6298605196302642
X 0.9845 -0.1708 0.0
X 0.49225 0.40114999999999995 0.0
X 1.73039119483611 0.027815543788709013 0.0
X 0.5911 -1.4374 0.0
X 1.0931421503704586 -2.020322774029858 0.0
X -0.16011696022193522 -1.6021436759348606 0.0
X -1.336 0.4101 0.0
X -0.6200397578240402 0.7118107906774441 0.0
X -1.8224972483363762 0.9556270587267734 0.0
X 0.12852847131124895 1.4181919658447009 0.6298605196302642
X 0.12852847131124895 1.4181919658447009 -0.6298605196302642
X 1.73039119483611 0.027815543788709013 0.0
X 1.0931421503704586 -2.020322774029858 0.0
X -0.1601169602219351 -1.6021436759348606 0.0
X -1.8224972483363762 0.9556270587267734 0.0
