26  
(with calculated FODs)
C 0.0 0.9731 0.0
C 0.9845 -0.1708 0.0
C 0.5911 -1.4374 0.0
O -1.336 0.4101 0.0
H 0.181 1.5999 0.887
H 0.181 1.5999 -0.887
H 2.0349 0.1089 0.0
H 1.2981 -2.2583 0.0
H -0.4668 -1.6694 0.0
H -1.9945 1.1485 0.0
X 0.0 0.9731 0.0
X 0.49225 0.40115 0.0
X -0.7159602421759599 0.6713892093225559 0.0
X 0.14385642959546127 1.471272431328371 0.7049759837081444
X 0.14385642959546127 1.471272431328371 -0.7049759837081444
X 0.9845 -0.1708 0.0
X 0.7878000000000001 -0.8041 -0.5907668839999999
X 0.7878000000000001 -0.8041 0.5907668839999999
X 1.8193441637959806 0.05150189700469898 0.0
X 0.5911 -1.4374 0.0
X 1.1530143410165254 -2.0898405693641666 0.0
X -0.2497050655747982 -1.6217905616914199 0.0
X -1.336 0.4101 0.0
X -1.8741630775596199 1.0135618321488584 0.0
X -1.4715 0.14982 0.40717137
X -1.4715 0.14982 -0.40717137
