25
CH3OH_in 
C -0.0471 0.6793 0.0
O -0.0471 -0.7734 0.0
H -1.0964 0.9768 0.0
H 0.4301 1.1079 0.8906
H 0.4301 1.1079 -0.8906
H 0.8949 -1.0815 0.0
X -0.0471 -0.09919958368938397 0.0
X -0.8810698982017543 0.9157491038930924 0.0
X 0.33217231051355856 1.0199456669868217 0.7078372165619767
X 0.33217231051355856 1.0199456669868217 -0.7078372165619767
X -0.0471 0.6793 0.0
X 0.7227551542310735 -1.0251965743297173 0.0
X -0.2193875007201488 -0.8679306423286401 -0.5558353263703226
X -0.2338806066045926 -0.9088268941500297 0.5558353263703226
X -0.2193875007201488 -0.8679306423286401 0.5558353263703226
X -0.0471 -0.7734 0.0
H       -0.03710172        -0.76783138        -0.00000017  
H      -0.04718276         0.69396621        -0.00000023  
H        0.69359064        -1.00546156         0.00000008  
H       0.35367205         1.03754982        -0.74210275  
H        0.00139308        -0.09783576         0.00000161  
H        0.35367202         1.03755057         0.74210141  
H       -0.91920192         0.93392313        -0.00000045  
H       -0.23890295        -0.92592995         0.41571800  
H       -0.23890329        -0.92592953        -0.41571938  
