        11 
  
C   0.0000  0.0000   0.6011
C   0.0000  0.0000  -0.6011
H   0.0000  0.0000   1.6632
H   0.0000  0.0000  -1.6632
X	6.64E-05	5.21E-05	0.629195083
X	6.67E-05	5.21E-05	-0.629198581
X	-3.53E-01	-4.99E-01	-3.34852E-07
X	1.28E-04	8.46E-05	1.635538738
X	1.28E-04	8.45E-05	-1.63553893
X	6.09E-01	-5.61E-02	4.01875E-07
X	-2.56E-01	5.55E-01	-3.20326E-07
 
