        24 
  
C         -0.02568214     -0.62490995      0.00000000
C         -0.02568214      0.86613162      0.00000000
H          0.99397568     -1.02873569      0.00000000
H         -0.52372742     -1.02453402      0.88341908
H         -0.52372742     -1.02453402     -0.88341908
H          0.05242172      1.41829103     -0.92431919
H          0.05242172      1.41829103      0.92431919
X       -0.44492520        -0.94471717        -0.73298126  
 X        0.16157952         1.32154206         0.76276736  
 X       -0.03430771        -0.63671432        -0.00000112  
 X        0.83044307        -1.00458756         0.00000011  
 X        0.16158037         1.32154040        -0.76276766  
 X       -0.44492394        -0.94471843         0.73297990  
 X        0.20725120         0.12710886         0.00000201  
 X       -0.71908162         0.88570027        -0.00000119  
 X       -0.01109444         0.87149793         0.00000015  
 X       -0.02714889         0.88088606        -0.00000147  
 X        0.03329612         1.32009681         0.76456644  
 X       -0.44326723        -0.94749450        -0.73776866  
 X       -0.44326898        -0.94749573         0.73777018  
 X        0.82107153        -0.93591475        -0.00000102  
 X       -0.03784926         0.12928096         0.00000030  
 X        0.03329609         1.32009826        -0.76457020  
 X       -0.02633511        -0.63958879         0.00000161  
 

