        22 
  
C    1.1774 -0.3906  0.0000
C    0.0000  0.5827  0.0000
O   -1.1916 -0.2537  0.0000
H   -1.9913  0.3321  0.0000
H    2.1295  0.1462  0.0000
H    1.1173 -1.0265  0.8861
H    1.1173 -1.0265 -0.8861
H    0.0476  1.2260  0.8887
H    0.0476  1.2260 -0.8887 
X	-1.194166295	-2.56E-01	 0.000108637
X	 0.007744105	 5.72E-01	 2.6302E-07
X	 1.164288726	-3.85E-01	-3.31635E-09
X	-1.171466046	-6.00E-01	-0.614604755
X	 1.090326044	-9.03E-01	-0.746466206
X	-0.002233597	 1.01E+00	-0.764654119
X	-0.698175466	 1.87E-01	-6.06825E-06
X	-0.002230121	 1.01E+00	 0.764655218
X	 0.619990054	 1.28E-01	 6.05712E-07
X	 1.889989889	 1.42E-01	 5.59568E-08
X	 1.090326356	-9.03E-01	 0.746466106
X	-1.171476354	-6.00E-01	 0.614600203
X	-1.688768534	 2.02E-01	-1.39225E-06