        35 
  
C          1.12258660     -0.26247610      0.00005122
C         -0.15121236      0.60084431     -0.00006278
C         -1.40064165     -0.21480516     -0.00001678
H          1.15551730     -0.90368070      0.88122780
H          1.15554376     -0.90387120     -0.88098535
H          2.01601772      0.36344057     -0.00000578
H         -0.13407119      1.25156298     -0.87709590
H         -0.13412517      1.25174820      0.87683034
H         -1.81499801     -0.59105865      0.92442983
H         -1.81461701     -0.59170425     -0.92437260
X       -1.67879639        -0.62336290         0.76629152  
 X       -1.77800353         0.36827676        -0.00029446  
 X        1.13630579        -0.80117137        -0.73617943  
 X       -0.14918419         1.14368551         0.73637257  
 X       -1.67848380        -0.62389202        -0.76616412  
 X        0.56061124         0.19705901        -0.00001288  
 X        1.13323992        -0.27297416         0.00005270  
 X       -1.40012903        -0.23028362        -0.00001192  
 X       -0.67341782        -0.06159119         0.00008023  
 X       -0.15948461         0.61309073        -0.00006774  
 X       -0.14913703         1.14352508        -0.73662284  
 X        1.13628259        -0.80101163         0.73639962  
 X        1.87459134         0.24821565         0.00000603  
 X       -0.81486371         0.18837837        -0.00004008  
 X       -1.73712587        -0.52304191         0.76658285  
 X       -0.14235897         1.14795482        -0.74562421  
 X        1.14300207        -0.80187750         0.73901345  
 X        1.85727595         0.26050124         0.00000377  
 X       -1.41384452        -0.22194169        -0.00001779  
 X        1.13471398        -0.27099041         0.00005375  
 X        0.48880273         0.14659109        -0.00000391  
 X       -0.15135779         0.61558021        -0.00006245  
 X       -0.14239828         1.14811449         0.74538458  
 X       -1.73681178        -0.52357732        -0.76654835  
 X        1.14302652        -0.80203619        -0.73879083  
 
