        28 
  
N   -2.2400000000  -0.3380000000    0.0000000000
C   -1.2230000000   0.2560000000    0.0000000000
C    0.0000000000   0.9940000000    0.0000000000
C    1.4910000000  -1.0630000000    0.0000000000
C    1.2210000000   0.4070000000    0.0000000000
H    2.0940000000   1.0720000000    0.0000000000
H    0.5610000000  -1.6540000000    0.0000000000
H    2.0900000000  -1.3480000000    0.8850000000
H    2.0900000000  -1.3480000000   -0.8850000000
H   -0.0960000000   2.0850000000    0.0000000000
 X       -2.22766342        -0.33215991         0.00000016  
 X        1.22333575         0.42151868         0.00000079  
 X       -0.00147554         1.00852973        -0.00000044  
 X       -1.23291739         0.24513641         0.00000031  
 X        1.49069319        -1.07767840        -0.00000132  
 X       -1.57444251        -0.38964359        -0.60825957  
 X        0.55535508         0.69389806        -0.58632383  
 X        1.35327942        -0.31370974         0.00000088  
 X       -0.68589641         0.63406284        -0.00000400  
 X       -0.10429616         1.89270301        -0.00000060  
 X        1.93891848         0.93775672         0.00000028  
 X        1.95747287        -1.27871059        -0.73234557  
 X        1.95747156        -1.27871056         0.73234356  
 X        0.70683324        -1.53858667         0.00000022  
 X       -2.09486547         0.41425958         0.00000444  
 X       -2.64709605        -0.59167069         0.00000189  
 X       -1.57442925        -0.38964731         0.60825797  
 X        0.55534725         0.69390000         0.58632987  



 
