        29 
  
C   0.0000  1.0105  0.0000
C   2.2089  -0.4340 0.0000
C   1.1937  0.2199  0.0000
C   -1.2339 0.4899  0.0000
C   -1.5452 -0.9829 0.0000
H   0.1374  2.0873  0.0000
H   -2.0822 1.1685  0.0000
H   -0.6256 -1.5727 0.0000
H   -2.1371 -1.2485 0.8839
H   -2.1371 -1.2485 -0.8839
H   3.1036  -1.0064 0.0000
 X        0.00232945         1.02488946         0.00000022  
 X       -1.23764212         0.50406605         0.00000002  
 X        1.20435025         0.20970725         0.00000028  
 X       -1.54579066        -0.99757775         0.00000025  
 X        2.20708471        -0.44853722         0.00000044  
 X       -0.57402505         0.74317149         0.58018502  
 X        1.44885977        -0.43713784        -0.65777735  
 X       -1.39574181        -0.23610369        -0.00000073  
 X       -1.93695038         1.03708256        -0.00000015  
 X        2.87609239        -0.87040488        -0.00000085  
 X        0.13870280         1.90349069        -0.00000014  
 X        0.67500265         0.63219156         0.00000077  
 X       -2.01105773        -1.18858413        -0.73325849  
 X       -2.01105804        -1.18858388         0.73325866  
 X       -0.77453630        -1.46691917         0.00000026  
 X        1.44887956        -0.43712440         0.65778276  
 X        2.08533752         0.33972629        -0.00001084  
 X       -0.57402468         0.74317321        -0.58017983 


 
 
