       240 
  
C   0.0000  1.2421  3.3269
C   -1.1813 0.3838  3.3269
C   -0.7301 -1.0049 3.3269
C   0.7301  -1.0049 3.3269
C   1.1813  0.3838  3.3269
C   2.3017  0.7479  2.5988
C   3.0318  -0.2570 1.8312
C   2.6039  -1.5741 1.8312
C   1.4225  -1.9580 2.5988
C   0.6924  -2.9629 1.8312
C   -0.6924 -2.9629 1.8312
C   -1.4225 -1.9580 2.5988
C   -2.6039 -1.5741 1.8312
C   -3.0318 -0.2570 1.8312
C   -2.3017 0.7479  2.5988
C   -2.3017 1.9900  1.8312
C   -3.0318 1.7528  0.5890
C   -3.4831 0.3640  0.5890
C   -3.4831 -0.3640 -0.5890
C   -3.0318 -1.7528 -0.5890
C   -2.6039 -2.3418 0.5890
C   -1.4225 -3.2001 0.5890
C   -0.7301 -3.4251 -0.5890
C   0.7301  -3.4251 -0.5890
C   1.4225  -3.2001 0.5890
C   2.6039  -2.3418 0.5890
C   3.0318  -1.7528 -0.5890
C   3.4831  -0.3640 -0.5890
C   3.4831  0.3640  0.5890
C   3.0318  1.7528  0.5890
C   2.6039  2.3418  -0.5890
C   2.6039  1.5741  -1.8312
C   3.0318  0.2570  -1.8312
C   2.3017  -0.7479 -2.5988
C   2.3017  -1.9900 -1.8312
C   1.1813  -2.8040 -1.8312
C   0.0000  -2.4202 -2.5988
C   -1.1813 -2.8040 -1.8312
C   -2.3017 -1.9900 -1.8312
C   -2.3017 -0.7479 -2.5988
C   -3.0318 0.2570  -1.8312
C   -2.6039 1.5741  -1.8312
C   -2.6039 2.3418  -0.5890
C   -1.4225 3.2001  -0.5890
C   -0.6924 2.9629  -1.8312
C   -1.4225 1.9580  -2.5988
C   -0.7301 1.0049  -3.3269
C   -1.1813 -0.3838 -3.3269
C   0.0000  -1.2421 -3.3269
C   1.1813  -0.3838 -3.3269
C   0.7301  1.0049  -3.3269
C   1.4225  1.9580  -2.5988
C   0.6924  2.9629  -1.8312
C   1.4225  3.2001  -0.5890
C   0.7301  3.4251  0.5890
C   -0.7301 3.4251  0.5890
C   -1.1813 2.8040  1.8312
C   0.0000  2.4202  2.5988
C   1.1813  2.8040  1.8312
C   2.3017  1.9900  1.8312
X        1.42304335        -1.95874505         2.60120627  
 X       -0.00000012        -2.42112391        -2.60120834  
 X        2.60609377         2.34307950        -0.58859066  
 X        0.69191880         2.96505203        -1.83253101  
 X        0.73112345         3.42742684         0.58859123  
 X       -2.60610040        -1.57431086         1.83253384  
 X       -2.60610034         1.57431070        -1.83253403  
 X        2.30257566         1.99202643         1.83253133  
 X        2.60609365        -2.34307963         0.58859073  
 X        3.48562731         0.36374653         0.58859019  
 X       -3.48562727         0.36374626         0.58859030  
 X        0.73112328        -3.42742719        -0.58859120  
 X       -0.69191895        -2.96505184         1.83253080  
 X        2.30257555        -1.99202639        -1.83253136  
 X       -0.73112354         1.00630872        -3.32879637  
 X       -3.48562732        -0.36374636        -0.58859023  
 X       -2.30257564         1.99202636         1.83253134  
 X        3.48562725        -0.36374624        -0.58859044  
 X        1.18295483        -0.38433802        -3.32879136  
 X        0.00000001         2.42112394         2.60120854  
 X       -2.30257542        -1.99202630        -1.83253145  
 X       -0.69191890         2.96505195        -1.83253093  
 X        1.18295487         0.38433794         3.32879108  
 X       -1.18295484         0.38433804         3.32879115  
 X        3.03370358        -0.25812367         1.83253274  
 X        2.30257237         0.74818231         2.60120231  
 X        1.42304066        -3.20258305         0.58859043  
 X       -2.30257231        -0.74818231        -2.60120250  
 X       -1.42304320         1.95874502        -2.60120615  
 X       -2.60609366        -2.34307940         0.58859090  
 X        1.42304311         1.95874499        -2.60120617  
 X        2.30257250        -0.74818241        -2.60120244  
 X        2.60610037         1.57431055        -1.83253380  
 X       -0.00000007        -1.24384257        -3.32879783  
 X        3.03370363         0.25812375        -1.83253257  
 X       -0.73112345         3.42742679         0.58859135  
 X       -0.73112324        -3.42742699        -0.58859121  
 X        0.00000002         1.24384283         3.32879799  
 X        2.60610024        -1.57431070         1.83253399  
 X       -1.18295533         2.80546257         1.83253271  
 X       -2.30257239         0.74818238         2.60120233  
 X       -1.42304062        -3.20258323         0.58859058  
 X       -0.73112352        -1.00630882         3.32879633  
 X       -3.03369474        -1.75449012        -0.58858996  
 X       -3.03369463         1.75449032         0.58859004  
 X        0.69191885        -2.96505195         1.83253082  
 X        0.73112355         1.00630872        -3.32879635  
 X       -2.60609357         2.34307953        -0.58859064  
 X       -1.18295534        -2.80546231        -1.83253273  
 X        1.18295543        -2.80546240        -1.83253260  
 X       -1.18295489        -0.38433810        -3.32879126  
 X       -1.42304325        -1.95874507         2.60120614  
 X        3.03369484         1.75449027         0.58859002  
 X        1.42304044         3.20258297        -0.58859011  
 X        1.18295537         2.80546253         1.83253277  
 X        0.73112364        -1.00630878         3.32879642  
 X       -1.42304064         3.20258302        -0.58859024  
 X       -3.03370355         0.25812379        -1.83253278  
 X        3.03369463        -1.75449027        -0.58859021  
 X       -3.03370381        -0.25812375         1.83253256  
 X        2.76766181         0.26206648         2.28896573  
 X        3.37344967        -0.06511854        -1.25815853  
 X       -1.10455525        -2.55118967         2.28907378  
 X       -3.37344460        -0.06511534        -1.25815751  
 X        0.97738193         3.00809063        -0.00000349  
 X       -2.08503431         2.86984167        -0.62108091  
 X       -0.60588304         0.83404954         3.45047667  
 X       -3.37379300         1.09620209         0.62113067  
 X       -2.56009951        -0.83179571         1.66374017  
 X       -0.97745759        -1.34538119         2.69065284  
 X        0.98043359        -3.22850125        -1.25816212  
 X       -0.97744988         1.34537080        -2.69063245  
 X        2.55841877         1.85877129        -0.00000153  
 X        0.00000140         1.03092174        -3.45035321  
 X       -0.60588438        -0.83404827        -3.45047513  
 X       -0.97739563        -3.00812686         0.00000537  
 X        0.60588589        -0.83404737        -3.45047212  
 X       -0.00000005        -1.66323782        -2.69108625  
 X        1.10455380        -2.55118781         2.28907350  
 X        2.08503305        -2.86983732         0.62107766  
 X        0.97746180        -1.34538607         2.69066186  
 X        2.55841394        -1.85876657         0.00000087  
 X        0.60591103         2.71301254         2.28895395  
 X        0.00000011         2.69070012        -1.66305485  
 X        2.08503412         2.86983942        -0.62107942  
 X       -0.60591247         2.71301107         2.28895197  
 X       -2.55839441         1.85875295        -0.00000154  
 X       -2.55838769        -1.85874685         0.00000069  
 X        2.76749673         1.93019802         1.25818314  
 X       -0.60591444        -2.71301784        -2.28895353  
 X       -2.76749798         1.93019933         1.25818619  
 X        2.08490545        -1.83866819         2.28891351  
 X        2.08490830         1.83867337        -2.28891608  
 X       -2.76765561        -0.26206517        -2.28896342  
 X       -0.97738822         3.00810744        -0.00000376  
 X        0.98041511        -0.31862648         3.45058211  
 X        3.37344859         0.06511798         1.25815658  
 X        2.56006735         0.83178572        -1.66372006  
 X        1.58183996        -2.17729749        -1.66341080  
 X        2.39317177        -1.41478670        -2.28904549  
 X        0.60588445         0.83404870         3.45047410  
 X       -0.98043416        -3.22849578        -1.25816006  
 X        0.60591273        -2.71301975        -2.28895584  
 X       -2.08490461        -1.83866525         2.28891202  
 X        1.58184729         2.17730631         1.66341866  
 X       -0.00000183        -3.54723127        -0.62103042  
 X        3.37378929        -1.09620264        -0.62112784  
 X       -2.39317181        -1.41478648        -2.28904576  
 X       -3.37344342         0.06511494         1.25815543  
 X        1.10454943         2.55118809        -2.28907004  
 X        0.00000139        -1.03092316         3.45034440  
 X       -1.58092844         0.51365772         2.68957861  
 X       -0.98043487         3.22849555         1.25816373  
 X        0.97745366         1.34537500        -2.69064057  
 X       -2.08490710         1.83867049        -2.28891478  
 X        0.97738922        -3.00811016         0.00000501  
 X       -1.58094682        -0.51366411        -2.68961098  
 X       -0.00000176         3.54723719         0.62103398  
 X       -1.58184941        -2.17730787        -1.66341969  
 X       -2.56008974         0.83179378        -1.66373519  
 X       -0.00000007        -2.27027044        -3.67325440  
 X        1.10447006         3.18832678        -1.25816299  
 X       -3.37379441        -1.09620157        -0.62113079  
 X       -0.98041657         0.31862390        -3.45058395  
 X        2.69090132         2.03555518        -1.25819014  
 X        2.15924643         2.97204423         2.27044489  
 X        1.33405256         1.83624420        -3.67245323  
 X       -3.49475825        -1.13557246         2.27109511  
 X        1.58095655        -0.51366771        -2.68962504  
 X       -3.16246044        -0.00000007        -0.00000074  
 X        0.00000013        -2.69066164         1.66303182  
 X       -2.76766119         0.26206449         2.28896362  
 X       -2.08503320        -2.86984016         0.62107941  
 X        2.56007653        -0.83178728         1.66372455  
 X        2.76765598        -0.26206706        -2.28896536  
 X        3.37378809         1.09620345         0.62112789  
 X        0.98043434         3.22850048         1.25816575  
 X       -1.10447179        -3.18832785         1.25816075  
 X       -0.98041471        -0.31862729         3.45058673  
 X       -2.69090097        -2.03555384         1.25819345  
 X       -0.00000025        -3.67241810         2.26965489  
 X        2.15923391        -2.97202520        -2.27043084  
 X       -3.49147024        -2.53680299         0.00003674  
 X        3.49151958        -2.53683875         0.00003596  
 X        1.33389599        -4.10557416        -0.00006270  
 X       -1.10455096         2.55118965        -2.28907045  
 X        3.16245785        -0.00000012        -0.00000079  
 X        0.00000003         1.66325044         2.69111113  
 X       -1.58185526         2.17731454         1.66342592  
 X        2.15745531         0.70100903         3.67053024  
 X        3.49471399        -1.13555887         2.27106670  
 X       -0.00000023         3.67248754        -2.26969838  
 X        2.76749964        -1.93019857        -1.25818564  
 X       -2.76750076        -1.93019989        -1.25818861  
 X        0.98041695         0.31862299        -3.45057925  
 X       -2.69090151         2.03555445        -1.25819219  
 X        1.10447375        -3.18832976         1.25816284  
 X        2.39317558         1.41479030         2.28904593  
 X        1.58093720         0.51366114         2.68959122  
 X       -2.39317590         1.41479008         2.28904620  
 X        2.69090071        -2.03555471         1.25819082  
 X       -1.10446820         3.18832491        -1.25816087  
 X        3.49469913         1.13555260        -2.27105625  
 X       -2.15744187         0.70100492         3.67050503  
 X       -1.33404705         1.83623710        -3.67243674  
 X       -3.49148288         2.53681155        -0.00003595  
 X       -1.33390582        -4.10560556        -0.00006337  
 X        3.49152894         2.53684455        -0.00003508  
 X       -3.49474214         1.13556584        -2.27108417  
 X        4.31596383         0.00000060         0.00000003  
 X        2.15749254        -0.70102191        -3.67059253  
 X       -2.15747752        -0.70101702        -3.67056431  
 X        1.33406726        -1.83626303         3.67249285  
 X       -1.33406102        -1.83625515         3.67247483  
 X       -2.15924785        -2.97204722        -2.27044723  
 X        1.33388507         4.10553753         0.00006174  
 X       -4.31596849         0.00000056         0.00000019  
 X       -1.33389513         4.10556907         0.00006231  
 X       -0.00000018         2.27029987         3.67329727  
 X       -2.15925753         2.97206203         2.27045818