        13 
  
C          0.00000000      0.00000000      0.00000000
H          0.53865812      0.93298323      0.00000000
H          0.53865812     -0.93298323      0.00000000
H         -1.07731624      0.00000000      0.00000000
X	-5.19E-06	8.06E-06	2.11E-02
X	-8.95E-01	-6.37E-05	2.01E-01
X	4.48E-01	-7.75E-01	2.01E-01
X	4.48E-01	7.75E-01	2.01E-01
X	5.28E-05	6.73E-05	-9.48E-01
He	-9.13E-01	-4.03E-04	5.68E-04
He	4.53E-01	-7.85E-01	8.44E-04
He	4.57E-01	7.90E-01	5.67E-04
He	7.32E-05	-7.46E-05	1.18E-01