        18 
  
C    0.0000  0.0000 -1.1398
Cl   0.0000  0.0000  0.6639
H    0.0000  1.0328 -1.4824
H    0.8944 -0.5164 -1.4824
H   -0.8944 -0.5164 -1.4824
X        0.88210809         0.53416201         0.91011832  
 X       -0.00000002        -0.00017614        -1.15468872  
 X        0.00000021         0.15822435         0.60745039  
 X       -0.00000004        -0.00410291         0.66662233  
 X       -0.88210634         0.53416548         0.91011796  
 X       -0.00000019         0.00330769         0.85650175  
 X       -0.15239162        -0.08650975         0.60239666  
 X        0.74166780        -0.42903610        -1.42504058  
 X        0.00000000         0.85575451        -1.42720253  
 X       -0.74166792        -0.42903607        -1.42504042  
 X        0.00000034         0.00344440        -0.38522860  
 X       -0.00000172        -1.03610129         0.93241934  
 X        0.15239148        -0.08650990         0.60239704  

 
 
