        15 
  
C   -0.0471  0.6793  0.0000
O   -0.0471 -0.7734  0.0000
H   -1.0964  0.9768  0.0000
H    0.4301  1.1079  0.8906
H    0.4301  1.1079 -0.8906
H    0.8949 -1.0815  0.0000
X       -0.03710172        -0.76783138        -0.00000017  
 X       -0.04718276         0.69396621        -0.00000023  
 X        0.69359064        -1.00546156         0.00000008  
 X        0.35367205         1.03754982        -0.74210275  
 X        0.00139308        -0.09783576         0.00000161  
 X        0.35367202         1.03755057         0.74210141  
 X       -0.91920192         0.93392313        -0.00000045  
 X       -0.23890295        -0.92592995         0.41571800  
 X       -0.23890329        -0.92592953        -0.41571938  


 

