        19 
  
Cl 0.0000  0.0000   1.0071
Cl 0.0000  0.0000  -1.0071
X       -0.00341696         0.00296666         1.00905937  
 X       -0.00426270         0.00151860        -1.00905937  
 X       -0.56569724        -0.86634615         1.20239167  
 X       -1.06016264         0.02407383        -1.02281919  
 X        0.47658437         0.91839483        -1.20236017  
 X       -0.54190069         0.91152052         1.02280530  
 X        0.96733721         0.05575064         1.41780351  
 X       -0.15488348        -0.01340747         0.90214503  
 X       -0.07271761        -0.15707999        -0.95178025  
 X       -0.04504763         0.03078408        -1.19394146  
 X        0.31524276        -0.18412750         0.00000028  
 X       -0.06442969         0.14148068        -0.90214076  
 X        0.08970861        -0.14172272         0.99237938  
 X       -0.04894222         0.02411395         1.19394177  
 X        0.10107705         0.14051653         0.95177312  
 X        0.16751358        -0.00849431        -0.99237678  
 X        0.42677670        -0.86988257        -1.41782224  

 
