       15

C       0.000000000000000      0.000000000000000      0.000000000000000
N       0.000000000000000      0.000000000000000      1.171800000000000
X       -0.00000018        -0.00000014         1.15855234
 X        0.00000309         0.00000223        -0.58912083
 X        0.00000023        -0.00000017         0.01539818
 X       -0.53900777        -0.35742869         0.68005193
 X       -0.00000120        -0.00000025         1.67082287
 X       -0.04003975         0.64550190         0.68006165
 X        0.57903618        -0.28807623         0.68006293
 X       -0.57404021         0.04887529         0.38443303
 X       -0.04604079        -0.54074779         1.38321980
 X       -0.00000034         0.00000085        -0.01609524
 X       -0.00000020        -0.00000036         1.15892314
 X        0.57404871        -0.04888166         0.38441849
 X        0.04604690         0.54074729         1.38321406
