         9 
  
C  0.0000  0.0000  -0.6563
O  0.0000  0.0000  0.4922
X       -0.00000001        -0.00000001         0.48081771  
 X       -0.00000001        -0.00000002        -0.64060604  
 X       -0.46824889        -0.31924542         0.16539384  
 X        0.00000054         0.00000088         0.92694564  
 X       -0.04235018         0.56513742         0.16539101  
 X        0.51059854        -0.24589303         0.16539218  
 X       -0.00000018        -0.00000030        -1.26135267  
 
