        11 
  
F   0.0000  0.0000   0.7141
F   0.0000  0.0000  -0.7141
X	-9.14196E-06	1.52E-05	0.726530924
X	7.86989E-06	-1.60E-05	-0.726530615
X	-0.608977857	1.37E-01	0.768357475
X	0.608977853	-1.37E-01	-0.768358428
X	-4.1187E-07	1.22E-07	1.38982E-07
X	0.423322485	4.59E-01	0.767660692
X	-0.423322503	-4.59E-01	-0.767659601
X	0.185967799	-5.96E-01	0.768363032
X	-0.185966565	5.96E-01	-0.768363488