        11 
  
F   0.0000  0.0000   0.7141
F   0.0000  0.0000  -0.7141
X        0.00000003        -0.00000005         0.70432486  
 X        0.00000012         0.00000005        -0.70432487  
 X       -0.41399684         0.09065083         0.82439408  
 X        0.41399747        -0.09064775        -0.82439594  
 X        0.00000233         0.00000093         0.00000007  
 X        0.28550391         0.31320588         0.82439585  
 X       -0.28550172        -0.31320826        -0.82439383  
 X        0.12849190        -0.40385717         0.82439474  
 X       -0.12849599         0.40385566        -0.82439485  
 

