 6

 F 0.000000000000e+00 0.000000000000e+00 0.000000000000e+00
 X -0.000000000000e+00 -0.000000000000e+00 0.000000000000e+00
 X 3.566722531412e-01 3.557138072348e-01 3.506541568565e-01
 X 3.537818284278e-01 -3.532981313868e-01 -3.530421587961e-01
 X -3.551190796549e-01 3.517774559114e-01 -3.514140764944e-01
 X -3.547139728105e-01 -3.541569449459e-01 3.546525102838e-01
