16
2-Amino-3,7-dihydropurin-6-one
  N      1.9866      1.1836     -0.0283
  C      2.8388      0.1449     -0.0508
  N      2.1080     -1.0623     -0.0561
  C      0.7548     -0.7279     -0.0340
  C      0.6865      0.6752     -0.0179
  N     -0.3434     -1.5920     -0.0311
  C     -1.5390     -0.9907      0.0130
  C     -0.5995      1.3416      0.0115
  N     -1.7164      0.4112      0.0184
  O     -0.9000      2.5196      0.0283
  N     -2.6853     -1.8196      0.1625
  H      3.9288      0.2275     -0.0630
  H      2.4866     -1.9740     -0.0670
  H     -2.6453      0.7744      0.0609
  H     -2.4967     -2.7868      0.0180
  H     -3.4651     -1.5083     -0.3735
