        13 
  
O    0.0000  0.7528 0.0000  
O    0.0000 -0.7528 0.0000
H    0.9881  0.8809 0.0000
H   -0.9881 -0.8809 0.0000
X	-0.002249828	-7.66E-01	9.76293E-06
X	-0.284502367	8.71E-01	0.612283534
X	-3.1161E-06	-5.17E-06	9.92671E-06
X	-0.700960015	-8.19E-01	5.83276E-07
X	0.700957182	8.19E-01	1.01655E-05
X	0.284505991	-8.71E-01	-0.612290281
X	0.002257508	7.66E-01	0.000121773
X	-0.284507923	8.71E-01	-0.612296533
X	0.284506051	-8.71E-01	0.612286657
 

