        11 
  
Cl  0.0000  0.0000   0.0713
H   0.0000  0.0000  -1.2117
X        0.00223105         0.00396184         0.07318879  
 X       -0.09186767         0.14978828         0.00639648  
 X        0.00059909         0.00106392         0.26063723  
 X       -0.07815197        -0.13878098         0.01830325  
 X        0.17571403        -0.00089543         0.00639650  
 X       -1.02797470        -0.03532740         0.30918400  
 X       -0.00048550        -0.00086222        -1.02961437  
 X        0.50791503         0.90194658         0.33493611  
 X        0.50276250        -0.89733488         0.30918426  
 
