        10 
  
C       0.000000000000000      0.000000000000000      0.000000000000000
H       0.000000000000000      0.000000000000000      1.064000000000000
N       0.000000000000000      0.000000000000000     -1.156000000000000
X       -0.00000007         0.00000004        -1.14268741  
 X       -0.00000019         0.00000172         0.01467629  
 X        0.57211040         0.28020888        -0.61710818  
 X        0.00000031         0.00000172         0.83567109  
 X        0.00000031        -0.00000968        -1.65426681  
 X       -0.52872353         0.35536248        -0.61710999  
 X       -0.04338928        -0.63555875        -0.61707998  
 
