         7 
  
F  0.0000  0.0000  0.0963
H  0.0000  0.0000  -0.8664
X       -0.00000004        -0.00000000         0.08637661  
 X        0.00000004         0.00000003        -0.62295000  
 X        0.40527344         0.10595951         0.20322662  
 X       -0.29440092         0.29799800         0.20322704  
 X       -0.11087337        -0.40395768         0.20322710  
 
