        16 
  
O    0.0374   1.1226  0.0000
H   -0.9342   1.3613  0.0000
Cl   0.0374  -0.6084  0.0000  
X	-0.173837112	-5.41E-01	-0.000168564
X	0.316476348	1.21E+00	0.613077022
X	0.03744864	-6.08E-01	2.65404E-05
X	0.046189007	-8.35E-01	0.001138451
X	0.136778112	-5.32E-01	-0.18158729
X	-0.332718737	-7.41E-01	-0.661412928
X	-0.018764251	3.74E-01	-0.000142278
X	0.78989011	-7.70E-01	-0.003509766
X	-0.637743106	1.20E+00	-0.00031003
X	0.316245036	1.21E+00	-0.612206632
X	0.03692457	1.14E+00	2.7155E-05
X	0.139916802	-5.34E-01	0.180479811
X	-0.328004726	-7.41E-01	0.664060265
 

