        16 
  
O    0.0374   1.1226  0.0000
H   -0.9342   1.3613  0.0000
Cl   0.0374  -0.6084  0.0000  
X       -0.14071762        -0.55048999         0.00251450  
 X        0.22487335         1.28474032         0.41574150  
 X        0.03499923        -0.61065734        -0.00365894  
 X        0.04318626        -0.79971268         0.00176091  
 X        0.12444013        -0.54474659        -0.15137784  
 X       -0.47645940        -0.88635540        -0.90025841  
 X        0.02690749         0.45312693         0.01603210  
 X        1.07938659        -0.82970392         0.01563956  
 X       -0.72184173         1.30209053        -0.00057780  
 X        0.22015021         1.26925728        -0.42598917  
 X        0.02710713         1.11780713        -0.00003627  
 X        0.11594788        -0.55168260         0.13677179  
 X       -0.44841230        -0.87587028         0.90683289  
 

