        19 
  
S          0.00000000      0.00000000      0.67010165
H          0.00000000      0.00000000     -0.67010165
X	1.78E-01	1.45E-01	5.99E-01
X	7.90E-01	-2.74E-01	8.66E-01
X	-1.30E-02	-2.34E-02	-2.84E-01
X	-1.46E-01	8.28E-01	8.71E-01
X	2.41E-05	1.45E-04	6.70E-01
X	-6.39E-01	-5.42E-01	8.42E-01
X	-2.10E-01	7.74E-02	5.81E-01
X	-6.09E-03	1.47E-03	9.09E-01
X	3.75E-02	-2.25E-01	5.90E-01
He	-2.32E-05	4.15E-04	6.70E-01
He	4.31E-01	-6.90E-01	9.68E-01
He	-2.94E-01	7.60E-01	9.84E-01
He	1.77E-02	3.12E-03	-2.90E-01
He	-8.59E-04	6.84E-03	9.10E-01
He	2.02E-01	-8.99E-02	5.65E-01
He	-1.73E-01	-1.55E-01	5.92E-01
He	-2.90E-02	2.30E-01	6.09E-01
