         9 
  
N          0.00000000      0.00000000      0.54855572
N          0.00000000      0.00000000     -0.54855572
X	-1.07E-04	2.09E-05	-0.569135683
X	-9.72E-05	2.08E-05	0.569135223
X	-1.82E-01	4.51E-01	-7.8118E-07
X	-1.79E-04	1.32E-04	-1.463852628
X	4.82E-01	-6.72E-02	-1.68755E-06
X	-2.98E-01	-3.84E-01	-2.43142E-06
X	-1.84E-04	1.35E-04	1.463894106  