         9 
  
N          0.00000000      0.00000000      0.54855572
N          0.00000000      0.00000000     -0.54855572
X       -0.00000001        -0.00000003        -0.53530597  
 X        0.00000003         0.00000003         0.53530599  
 X       -0.22944434         0.55966215         0.00000034  
 X       -0.00000018         0.00000029        -1.04689481  
 X        0.59940431        -0.08112659        -0.00000055  
 X       -0.36995966        -0.47853614         0.00000024  
 X        0.00000013        -0.00000010         1.04689487  
 
  