        12 
  
N    0.0000   0.6357  0.0000
N    0.0000  -0.6357  0.0000
H    1.0043   0.9370  0.0000
H   -1.0043  -0.9370  0.0000
X	4.19E-03	0.655752128	1.73E-06
X	-4.13E-03	-0.655756773	-3.60E-06
X	-3.92E-07	-2.15042E-06	-3.12E-01
X	6.58E-01	0.905721491	-1.89E-07
X	-6.58E-01	-0.905677866	4.01E-07
X	5.96E-01	-1.26076768	-1.15E-05
X	-1.21E-05	-8.29978E-06	3.12E-01
X	-5.96E-01	1.260823228	5.42E-06
 