        15 
  
N    0.0000  0.7276 -0.0657
N    0.0000 -0.7276 -0.0657
H   -0.2469  1.1379  0.8404
H    0.2469 -1.1379  0.8404
H    0.9134  1.0545 -0.3807
H   -0.9134 -1.0545 -0.3807
X       -0.00951937        -0.72566755        -0.05649934  
 X        0.00951940         0.72566757        -0.05649942  
 X        0.74622615         0.97682692        -0.28043348  
 X       -0.74622722        -0.97682667        -0.28043299  
 X       -0.16768609         1.05458672         0.67407717  
 X        0.16768676        -1.05458622         0.67407655  
 X        0.00000059         0.00000058         0.03770700  
 X        0.35180252        -0.90537450        -0.42580063  
 X       -0.35180355         0.90537487        -0.42580059  
 
