         9 
  
N    0.0000  0.0000  0.0889
H    0.0000  0.9740 -0.2074
H    0.8435 -0.4870 -0.2074
H   -0.8435 -0.4870 -0.2074
X        0.00000003         0.00000007         0.07529629  
 X        0.64907436        -0.37474558        -0.19053998  
 X       -0.00000007         0.74949226        -0.19054113  
 X       -0.64907439        -0.37474566        -0.19053996  
 X       -0.00000001         0.00000112         0.60906168  

 
