        20 
  
P          0.00000000      0.00000000      0.65538955
H         -1.02013202      0.00000000     -0.32769478
H          1.02013202      0.00000000     -0.32769478
X        0.00000157         0.17392287         0.52882547  
 X       -0.00000006         0.00295197         0.66012759  
 X        0.93492224        -0.00260922        -0.21968896  
 X       -0.93492030        -0.00260973        -0.21969025  
 X        0.18563790        -0.00058507         0.78584751  
 X       -0.18564036        -0.00058415         0.78584448  
 X        0.00000004        -1.18696576         1.14149217  
 X       -0.00000073         1.18532514         1.17927202  
 X        0.00000056        -0.16396087         0.54100377  
 He        0.96621058         0.00211501        -0.20915743  
 He       -0.00000277         0.00401728         2.05387222  
 He       -0.96620946         0.00211582        -0.20915832  
 He       -0.00000004         0.00214891         0.66055572  
 He       -0.18222656        -0.09093080         0.74565643  
 He        0.00000232        -0.03603600         0.45948747  
 He        0.00000151         0.22653070         0.69095854  
 He        0.18222261        -0.09093386         0.74566111  
 
