11 
PH2_in  0
P          0.00000000      0.00000000      0.65538955
H         -1.02013202      0.00000000     -0.32769478
H          1.02013202      0.00000000     -0.32769478
 He        0.96621058         0.00211501        -0.20915743  
 He       -0.00000277         0.00401728         2.05387222  
 He       -0.96620946         0.00211582        -0.20915832  
 He       -0.00000004         0.00214891         0.66055572  
 He       -0.18222656        -0.09093080         0.74565643  
 He        0.00000232        -0.03603600         0.45948747  
 He        0.00000151         0.22653070         0.69095854  
 He        0.18222261        -0.09093386         0.74566111  
