        13 
  
P    0.0000  0.0000  0.1281
H    0.0000  1.1840 -0.6403
H    1.0254 -0.5920 -0.6403
H   -1.0254 -0.5920 -0.6403
X        0.18352717         0.10595678         0.20161266  
 X       -0.00000157        -0.21191893         0.20161059  
 X       -0.00000003        -0.00000013         0.13369373  
 X        0.95886355        -0.55359343        -0.53291436  
 X       -0.18352535         0.10595992         0.20161336  
 X       -0.95886650        -0.55359219        -0.53291291  
 X        0.00000042         1.10718673        -0.53290883  
 X       -0.00000036         0.00000157        -0.07013064  
 X        0.00000288        -0.00000297         1.50249959  
 
