        25 
  
Si   0.0000  0.0000  1.1581
Si   0.0000  0.0000 -1.1581
H    0.0000  1.3860  1.6716
H   -1.2003 -0.6930  1.6716
H    1.2003 -0.6930  1.6716
H    0.0000 -1.3860 -1.6716
H   -1.2003  0.6930 -1.6716
H    1.2003  0.6930 -1.6716
X        0.15314870         0.11272883         0.97990197  
 X       -0.02537378        -0.23321391         1.10179142  
 X       -0.02537319         0.23321404        -1.10179136  
 X        1.17444482         0.66123641        -1.53138508  
 X        0.09936494        -0.02076002        -1.37701639  
 X       -1.07447941         0.69533558        -1.72944990  
 X        0.15314865        -0.11272919        -0.97990220  
 X        0.00564734        -0.00055455         1.15604370  
 X       -0.19485244         0.09846434         1.15877934  
 X       -1.07447937        -0.69533566         1.72944981  
 X       -0.19485261        -0.09846386        -1.15877904  
 X       -0.95755037        -0.00000017        -0.00000007  
 X        0.05303857         1.32502464         1.56289057  
 X        0.00564735         0.00055456        -1.15604371  
 X        0.05303851        -1.32502454        -1.56289061  
 X        0.09936530         0.02075979         1.37701626  
 X        1.17444477        -0.66123664         1.53138507  
 


