        25 
  
Si   0.0000  0.0000  1.1581
Si   0.0000  0.0000 -1.1581
H    0.0000  1.3860  1.6716
H   -1.2003 -0.6930  1.6716
H    1.2003 -0.6930  1.6716
H    0.0000 -1.3860 -1.6716
H   -1.2003  0.6930 -1.6716
H    1.2003  0.6930 -1.6716
X	0.247957042	1.51E-01	1.076968066
X	-0.030668659	-2.80E-01	1.051174067
X	-0.029302136	2.80E-01	-1.051101794
X	0.938824684	5.37E-01	-1.504582988
X	0.03566551	-1.27E-02	-1.455260008
X	-0.939507168	5.55E-01	-1.477606965
X	0.248110415	-1.50E-01	-1.075911803
X	4.16235E-06	5.83E-06	1.158229087
X	-0.254538656	1.17E-01	1.047428012
X	-0.939456391	-5.55E-01	1.477567644
X	-0.254543119	-1.18E-01	-1.048447934
X	-0.015829935	4.53E-05	8.70706E-05
X	0.014887217	1.09E+00	1.489071526
X	-6.03269E-06	-6.19E-06	-1.158225465
X	0.014946899	-1.09E+00	-1.489187439
X	0.03694385	1.27E-02	1.455100695
X	0.938792646	-5.37E-01	1.504524639
 


