10

 S 0.000000000000e+00 0.000000000000e+00 0.000000000000e+00
 X 0.000000000000e+00 0.000000000000e+00 0.000000000000e+00
 X 1.691467712366e-01 1.686772030884e-01 1.680905931801e-01
 X -1.692719201446e-01 -1.685653468689e-01 1.680667994368e-01
 X -1.692669249702e-01 1.686684698593e-01 -1.680558349556e-01
 X 1.692663146833e-01 -1.686874958389e-01 -1.680672479717e-01
 X -9.072580637097e-01 -9.072456446764e-01 -9.072547118957e-01
 X 9.072348676219e-01 9.072399949472e-01 -9.072425832378e-01
 X 9.072141185078e-01 -9.072132627806e-01 9.072029409508e-01
 X -9.073015769812e-01 9.072951903304e-01 9.072795413685e-01

