        14 
  
Si   0.0000  0.0000  0.0000
H    0.8522  0.8522  0.8522
H   -0.8522 -0.8522  0.8522
H   -0.8522  0.8522 -0.8522
H    0.8522 -0.8522 -0.8522 
X        0.12828466        -0.16469251         0.13211265  
 X        0.00371878         0.00282912         0.00371597  
 X       -0.76825983         0.84302368        -0.78013003  
 X       -0.13309125         0.14332775         0.15003883  
 X       -0.13657068        -0.10792132        -0.13549586  
 X        0.74637943        -0.81618617        -0.84029560  
 X        0.15339892         0.13809333        -0.13458948  
 X        0.84088946         0.74119903         0.83657215  
 X       -0.85054231        -0.80103222         0.75196629  
 
