        19 
  
S   0.0000  0.0000   0.3686
O   0.0000  1.2481  -0.3686 
O   0.0000  -1.2481 -0.3686
X       -0.16969155         0.08361544         0.45260722  
 X        0.00000002        -1.23776587        -0.36423389  
 X       -0.00000003         1.23796466        -0.36366767  
 X        0.00000003         0.00524594         0.36860029  
 X       -0.00000035         0.02717957         0.17053166  
 X        0.16969233         0.08361481         0.45260662  
 X       -0.00000107        -0.10848509         1.60320983  
 X        0.00000005        -1.28603275        -0.87068092  
 X        0.00000043         0.99338038        -0.86691309  
 X        0.52780715         1.02327747        -0.01115636  
 X       -0.54537836        -0.86857781        -0.17013321  
 X        0.54537793        -0.86857784        -0.17013319  
 X       -0.52780817         1.02327735        -0.01115700  
 X       -0.00000006         1.71676034        -0.38040598  
 X       -0.00000003        -1.66437821        -0.09864540  
 X       -0.00000031        -0.17851346         0.40605581  
 

