        14 
  
S  0.0000  0.0000  0.5061
O  0.0000  0.0000  -1.0123
X        0.00000002        -0.00000001         0.51135683  
 X        0.00000000         0.00000001        -1.00087002  
 X       -0.41325427         0.41257903        -0.52771003  
 X        0.10856159         0.10873930         0.39875125  
 X       -0.12237032         0.12217034         0.62694240  
 X       -0.10856158        -0.10873911         0.39875108  
 X       -0.29671869        -0.29720441        -1.24080735  
 X        0.75563788         0.75687470         1.01972513  
 X        0.41325404        -0.41257844        -0.52771031  
 X       -0.75563792        -0.75687492         1.01972488  
 X        0.29671860         0.29720447        -1.24080751  
 X        0.12237034        -0.12217058         0.62694228  
 
