 48

 C -1.158592838511e+00 -4.887012329674e-01 -2.100834635300e-04
 C -6.732719913495e-01 8.970325762861e-01 0.000000000000e+00
 C 1.681134442786e+00 2.733995502085e-02 0.000000000000e+00
 C -2.393707917141e-01 -1.482953768539e+00 -1.000145456100e-04
 C -2.642786999086e+00 -7.202518397342e-01 2.402465804600e-04
 N 7.278619412179e-01 1.032282405068e+00 0.000000000000e+00
 N 1.120992661136e+00 -1.243023107040e+00 0.000000000000e+00
 O -1.386433381895e+00 1.892654623202e+00 -1.201232902300e-04
 O 2.886207586131e+00 2.262503650270e-01 1.301776625400e-04
 H 1.087462917015e+00 1.981805154942e+00 0.000000000000e+00
 H 1.784374854375e+00 -2.006755344418e+00 0.000000000000e+00
 H -5.187214719751e-01 -2.532006337442e+00 -6.101416459700e-04
 H -3.111028113580e+00 -2.597007325249e-01 -8.773625198053e-01
 H -2.874777352347e+00 -1.790384723129e+00 -2.019870479330e-03
 H -3.110087765180e+00 -2.637304191112e-01 8.805021298534e-01
 X -9.172321640681e-01 2.066741125292e-01 -6.162134907853e-03
 X -7.152850927062e-01 -9.379637859153e-01 5.102988370738e-01
 X -6.795581817106e-01 -9.198897675039e-01 -5.175888410179e-01
 X -1.911989708041e+00 -5.923112363352e-01 1.462314148819e-02
 X -1.158592459400e+00 -4.887010373893e-01 -2.100004457781e-04
 X 9.610452123886e-02 9.424506002372e-01 -1.426046502724e-01
 X -1.066042700262e+00 1.500484512727e+00 3.990557266390e-01
 X -1.106220433494e+00 1.461888705683e+00 -4.178204333755e-01
 X -6.732714291858e-01 8.970319041729e-01 0.000000000000e+00
 X 1.149869705530e+00 5.507524055287e-01 -1.294558651807e-01
 X 1.009595812007e+00 1.758842839649e+00 -2.416000654959e-01
 X 7.278615450668e-01 1.032282191275e+00 0.000000000000e+00
 X 6.363493439513e-01 7.817216860106e-01 1.038540227621e+00
 X 1.356533400484e+00 -6.461224107831e-01 -1.166619263694e-01
 X 2.389001664725e+00 1.481024028894e-01 3.664397913534e-01
 X 2.400275764563e+00 1.488279563004e-01 -4.063029682083e-01
 X 1.681133568623e+00 2.734005803606e-02 0.000000000000e+00
 X 4.868395825301e-01 -1.342023714151e+00 -1.617354212718e-01
 X 1.613120393212e+00 -1.849683414487e+00 -2.333980288246e-01
 X 1.120992379585e+00 -1.243022638624e+00 0.000000000000e+00
 X 1.019504967029e+00 -1.051414734728e+00 1.033417405938e+00
 X -3.907591238200e-01 -2.326079162829e+00 3.702831758504e-02
 X -2.393705081233e-01 -1.482953147936e+00 -1.000002122753e-04
 X -1.386432943048e+00 1.892654017628e+00 -1.200002547303e-04
 X -2.067337220180e+00 1.743054493095e+00 -1.436976602974e-02
 X -1.033875114137e+00 2.509211632971e+00 2.987029148260e-02
 X 2.886206126689e+00 2.262504802728e-01 1.300002759579e-04
 X 3.071380309907e+00 9.259296124015e-01 1.416222334023e-02
 X 3.279432570687e+00 -3.896713493012e-01 1.100660260541e-02
 X -2.929203099298e+00 -3.141871620909e-01 -7.204083050653e-01
 X -2.732409333632e+00 -1.650033500457e+00 -9.811124960790e-03
 X -2.911086339627e+00 -3.074154515221e-01 7.203890207615e-01
 X -2.642785609969e+00 -7.202515289127e-01 2.400005094607e-04
