 28
0
 Xe 0.000000000000e+00 0.000000000000e+00 0.000000000000e+00
 X 0.000000000000e+00 -0.000000000000e+00 -0.000000000000e+00
 X 1.668460761944e-02 -4.381762349634e-02 -3.267278932467e-03
 X 3.778462460724e-02 2.119918814051e-02 1.826989633950e-02
 X -1.284093144798e-02 1.846828128392e-02 -4.336911310588e-02
 X -3.927367627569e-02 3.137585270169e-03 2.906767647240e-02
 X -1.213948978103e-01 1.917006405291e-02 5.867624087309e-02
 X -6.094052681024e-02 5.546644307719e-02 -1.090488105643e-01
 X 1.295981945717e-01 -5.326728481609e-02 3.546140395698e-02
 X -1.105094590984e-02 -1.210675624999e-01 8.286861402153e-02
 X 1.097593389182e-01 8.098596174575e-02 -5.602282490575e-02
 X 5.886825282784e-02 -8.014627348904e-02 -1.095679552345e-01
 X 4.038349880185e-02 3.956514093862e-02 1.367883849200e-01
 X -3.186646160938e-02 1.441804828831e-01 1.942676656625e-02
 X -1.065011169812e-01 -8.766420520764e-02 -5.745816683966e-02
 X -2.167659966893e-01 -3.289328231166e-01 -1.522368505586e-01
 X -9.392406411814e-02 4.034302625066e-01 1.173465075621e-01
 X -2.315963685074e-01 -7.441857416786e-02 3.700848358877e-01
 X 3.147356946852e-01 6.962505758305e-02 3.069040857464e-01
 X 3.171719398984e-01 2.806845394310e-01 -1.391883167246e-01
 X 3.208922117259e-01 -2.042991982358e-01 -2.347749098586e-01
 X -9.806123269192e-02 1.537599939759e-01 -4.266187007484e-01
 X 1.374203797453e-01 -3.958533759196e-01 2.021627134208e-01
 X -4.585379014603e-01 9.281384453833e-02 -4.637471898606e-02
 X -3.324256209322e-01 1.285800810210e+00 -5.566343202969e-01
 X 1.422184979284e+00 -2.125731317560e-01 -1.185350765713e-01
 X -3.528718733151e-01 -1.050682300349e-02 1.402478962653e+00
 X -7.220427933608e-01 -1.041825009138e+00 -7.478828888324e-01
